12
Properties=species:S:1:pos:R:3:molID:I:1:momenta:R:3 Nmols=1 Comp=DMC(1) pbc="F F F"
C       -0.06354920       0.02615914       0.03273994        0       0.17844136      -0.34376020       1.07719402
O       -1.09745824      -0.56171083      -0.33384407        0      -0.37132631       0.01130763       0.61994678
O        0.59339279       0.04178514       1.16893291        0      -0.06068457      -0.59711980      -0.95669715
O        0.70731479       0.58054012      -0.92796504        0      -0.60590825       0.76431855      -0.46687405
C       -0.18480919      -0.38314587       2.27627182        0      -0.04014364      -0.06563936      -0.56096274
C        0.11790480       0.31317315      -2.18905210        0       0.29358387      -0.58416592       0.23783068
H        0.50081283      -0.52887988       3.16355896        0       0.01339961       0.14254610       0.22731550
H       -0.99130619       0.37122315       2.57026887        0      -0.01864405       0.28794111      -0.37432648
H       -0.79898220      -1.19689691       1.93909299        0       0.07867573      -0.13808167       0.14732151
H        0.82173383       0.39293513      -3.04121518        0       0.06493475       0.18520010      -0.03584277
H       -0.51975018      -0.63449883      -2.23208618        0       0.25642326       0.05312722       0.01555753
H       -0.68493521       1.15580308      -2.35394812        0       0.21124824       0.28432625       0.06953715
12
Properties=species:S:1:pos:R:3:molID:I:1:momenta:R:3 Nmols=1 Comp=DMC(1) pbc="F F F"
C       -0.06318952      -0.05421454      -0.00987922        0       0.90168558      -0.66877826      -1.22368381
O       -1.11834059      -0.54120751      -0.16913405        0      -1.62510874      -0.60908353       3.29229189
O        0.60625864       0.00621492       1.14150095        0      -0.16333372      -0.88228698       0.39860691
O        0.66609521       0.61442078      -0.93914055        0      -0.42152154       0.50251266       0.13743836
C       -0.24399522      -0.38195373       2.26666924        0      -0.24207815       0.45562952      -0.02525045
C        0.16290132       0.35712839      -2.27790046        0       1.00123071       1.36799296      -1.96319302
H        0.42100677      -0.45528834       3.09944478        0      -0.02158632       0.18048156      -0.32757747
H       -0.86732930       0.49219983       2.28975598        0       0.07286716      -0.42964061      -0.08251751
H       -0.63331466      -1.35059077       2.03519616        0      -0.13066002       0.15637695      -0.16158895
H        0.98352908       0.52541026      -2.92052095        0       0.09249233       0.42586704       0.11833214
H       -0.04402556      -0.64882914      -2.42642142        0       0.23003474       0.34191793       0.20786552
H       -0.60156869       1.12400886      -2.35437160        0       0.30597799      -0.84098925      -0.37072362
